66

C   4.204400   0.423400    1.482200
O   3.589400   -0.037700    0.279900
C   3.751700   0.773400    -0.812000
C   4.921000   1.527900    -0.992300
C   5.050400   2.407600    -2.065400
C   4.020100   2.518800    -2.991600
C   2.897100   1.706000    -2.877100
C   2.747800   0.826800    -1.792900
O   1.565400   0.140000    -1.853500
C   1.219400   -0.740100    -0.796500
N   4.104600   3.469600    -4.056000
C   3.772700   4.888100    -3.803500
C   2.311000   5.293100    -3.983600
O   2.013000   6.280700    -4.654700
N   1.367200   4.557100    -3.291800
C   -0.097100   4.771200    -3.374100
C   -0.692500   4.218200    -4.724200
C   -2.228200   4.287200    -4.773300
C   -0.168600   4.944000    -5.970000
C   -0.823500   4.162900    -2.119900
C   -0.621000   2.654000    -1.971100
C   -0.436300   4.852500    -0.805300
S   5.081900   3.052000    -5.384100
O   5.410900   4.249300    -6.139800
O   6.126400   2.134300    -4.965900
C   3.919400   2.128700    -6.358400
C   3.112100   2.806200    -7.270800
C   2.104800   2.112200    -7.937400
C   1.909700   0.745600    -7.695900
C   0.762900   0.014800    -8.327100
C   2.782700   0.062500    -6.836600
C   3.795800   0.749200    -6.169600
H   3.788300   -0.149600    2.315800
H   3.990300   1.483100    1.665300
H   5.283000   0.239600    1.461900
H   5.761700   1.438700    -0.311900
H   5.966800   2.979500    -2.185100
H   2.110200   1.763100    -3.626300
H   0.240400   -1.169000    -1.035000
H   1.111800   -0.202400    0.150700
H   1.927900   -1.570000    -0.724200
H   4.348000   5.533200    -4.477300
H   4.081700   5.179800    -2.793900
H   1.714900   3.985900    -2.533300
H   -0.257100   5.857900    -3.354200
H   -0.401900   3.165700    -4.831900
H   -2.592700   5.271400    -4.459500
H   -2.682900   3.524500    -4.134700
H   -2.603200   4.102400    -5.786700
H   -0.272100   6.029600    -5.871400
H   -0.716900   4.640800    -6.868800
H   0.877400   4.695100    -6.161900
H   -1.901800   4.331300    -2.224200
H   0.417200   2.432800    -1.729900
H   -0.897600   2.106500    -2.875800
H   -1.229700   2.256200    -1.151500
H   0.646100   4.880100    -0.653100
H   -0.876600   4.324800    0.050300
H   -0.817000   5.878400    -0.782300
H   3.237400   3.873100    -7.442500
H   1.456000   2.652200    -8.623400
H   0.112800   0.698100    -8.884700
H   0.152300   -0.454500    -7.547900
H   1.128500   -0.752600    -9.013700
H   2.656600   -1.004000    -6.661600
H   4.448100   0.216900    -5.481000
