FXR_1
 OpenBabel06161700293D
Structure written by MMmdl.
 66 67  0  0  1  0  0  0  0  0999 V2000
    2.4976   -3.8574   -1.3567 C   0  0  0  0  0  0  0  0  0  0  0  0
    2.1272   -3.2396   -2.5864 O   0  0  0  0  0  0  0  0  0  0  0  0
    2.8188   -2.1003   -2.9158 C   0  0  0  0  0  0  0  0  0  0  0  0
    2.0933   -1.2021   -3.7077 C   0  0  0  0  0  0  0  0  0  0  0  0
    2.6764   -0.0092   -4.1468 C   0  0  0  0  0  0  0  0  0  0  0  0
    4.0009    0.2941   -3.8080 C   0  0  0  0  0  0  0  0  0  0  0  0
    4.7286   -0.6119   -3.0405 C   0  0  0  0  0  0  0  0  0  0  0  0
    4.1539   -1.8053   -2.5905 C   0  0  0  0  0  0  0  0  0  0  0  0
    4.9179   -2.7653   -1.9829 O   0  0  0  0  0  0  0  0  0  0  0  0
    5.9226   -2.2979   -1.0904 C   0  0  0  0  0  0  0  0  0  0  0  0
    4.7330    1.3566   -4.4380 N   0  0  0  0  0  0  0  0  0  0  0  0
    4.0730    2.6960   -4.5010 C   0  0  0  0  0  0  0  0  0  0  0  0
    4.8318    3.7695   -3.7227 C   0  0  0  0  0  0  0  0  0  0  0  0
    4.4222    4.9309   -3.7162 O   0  0  0  0  0  0  0  0  0  0  0  0
    5.9494    3.3633   -3.0147 N   0  0  0  0  0  0  0  0  0  0  0  0
    6.8143    4.2992   -2.2916 C   0  0  0  0  0  0  0  0  0  0  0  0
    6.8625    4.0245   -0.7502 C   0  0  0  0  0  0  0  0  0  0  0  0
    5.4818    4.1513   -0.0889 C   0  0  0  0  0  0  0  0  0  0  0  0
    7.4534    2.6822   -0.3194 C   0  0  0  0  0  0  0  0  0  0  0  0
    8.2150    4.4701   -2.9672 C   0  0  0  0  0  0  0  0  0  0  0  0
    9.0674    3.2078   -3.1243 C   0  0  0  0  0  0  0  0  0  0  0  0
    8.1084    5.1107   -4.3626 C   0  0  0  0  0  0  0  0  0  0  0  0
    5.6138    0.9088   -5.8609 S   0  0  0  0  0  0  0  0  0  0  0  0
    6.0264    2.0940   -6.5464 O   0  0  0  0  0  0  0  0  0  0  0  0
    6.6038   -0.0925   -5.4577 O   0  0  0  0  0  0  0  0  0  0  0  0
    4.3899    0.0686   -6.8548 C   0  0  0  0  0  0  0  0  0  0  0  0
    3.5943    0.7928   -7.7502 C   0  0  0  0  0  0  0  0  0  0  0  0
    2.5356    0.1408   -8.3957 C   0  0  0  0  0  0  0  0  0  0  0  0
    2.2697   -1.2145   -8.1483 C   0  0  0  0  0  0  0  0  0  0  0  0
    1.0873   -1.8884   -8.7822 C   0  0  0  0  0  0  0  0  0  0  0  0
    3.1246   -1.9389   -7.3095 C   0  0  0  0  0  0  0  0  0  0  0  0
    4.1876   -1.3012   -6.6776 C   0  0  0  0  0  0  0  0  0  0  0  0
    1.7566   -4.6292   -1.1231 H   0  0  0  0  0  0  0  0  0  0  0  0
    2.5018   -3.1292   -0.5380 H   0  0  0  0  0  0  0  0  0  0  0  0
    3.4539   -4.3808   -1.4379 H   0  0  0  0  0  0  0  0  0  0  0  0
    1.0798   -1.4540   -4.0192 H   0  0  0  0  0  0  0  0  0  0  0  0
    2.1103    0.6286   -4.8219 H   0  0  0  0  0  0  0  0  0  0  0  0
    5.7806   -0.4043   -2.8835 H   0  0  0  0  0  0  0  0  0  0  0  0
    6.4411   -3.1763   -0.6959 H   0  0  0  0  0  0  0  0  0  0  0  0
    5.4668   -1.7588   -0.2538 H   0  0  0  0  0  0  0  0  0  0  0  0
    6.6795   -1.6851   -1.5877 H   0  0  0  0  0  0  0  0  0  0  0  0
    3.0650    2.6546   -4.0722 H   0  0  0  0  0  0  0  0  0  0  0  0
    3.9669    3.0404   -5.5306 H   0  0  0  0  0  0  0  0  0  0  0  0
    6.1997    2.3830   -3.0678 H   0  0  0  0  0  0  0  0  0  0  0  0
    6.3450    5.2905   -2.3742 H   0  0  0  0  0  0  0  0  0  0  0  0
    7.4886    4.8119   -0.3068 H   0  0  0  0  0  0  0  0  0  0  0  0
    4.8466    3.2889   -0.3174 H   0  0  0  0  0  0  0  0  0  0  0  0
    4.9617    5.0630   -0.3951 H   0  0  0  0  0  0  0  0  0  0  0  0
    5.5971    4.1915    1.0023 H   0  0  0  0  0  0  0  0  0  0  0  0
    7.0504    1.8535   -0.9092 H   0  0  0  0  0  0  0  0  0  0  0  0
    7.2366    2.4766    0.7352 H   0  0  0  0  0  0  0  0  0  0  0  0
    8.5423    2.6883   -0.3874 H   0  0  0  0  0  0  0  0  0  0  0  0
    8.7795    5.1749   -2.3407 H   0  0  0  0  0  0  0  0  0  0  0  0
    8.7199    2.5810   -3.9512 H   0  0  0  0  0  0  0  0  0  0  0  0
    9.1045    2.5818   -2.2400 H   0  0  0  0  0  0  0  0  0  0  0  0
   10.1052    3.4942   -3.3358 H   0  0  0  0  0  0  0  0  0  0  0  0
    7.6491    4.4260   -5.0844 H   0  0  0  0  0  0  0  0  0  0  0  0
    9.1079    5.3594   -4.7408 H   0  0  0  0  0  0  0  0  0  0  0  0
    7.5234    6.0345   -4.3435 H   0  0  0  0  0  0  0  0  0  0  0  0
    3.7611    1.8519   -7.9203 H   0  0  0  0  0  0  0  0  0  0  0  0
    1.9016    0.7037   -9.0786 H   0  0  0  0  0  0  0  0  0  0  0  0
    0.1948   -1.2621   -8.6799 H   0  0  0  0  0  0  0  0  0  0  0  0
    0.8666   -2.8431   -8.2910 H   0  0  0  0  0  0  0  0  0  0  0  0
    1.2778   -2.0803   -9.8417 H   0  0  0  0  0  0  0  0  0  0  0  0
    2.9435   -2.9939   -7.1119 H   0  0  0  0  0  0  0  0  0  0  0  0
    4.8059   -1.8703   -5.9799 H   0  0  0  0  0  0  0  0  0  0  0  0
  1  2  1  0  0  0  0
  1 33  1  0  0  0  0
  1 34  1  0  0  0  0
  1 35  1  0  0  0  0
  2  3  1  0  0  0  0
  3  8  1  0  0  0  0
  3  4  2  0  0  0  0
  4  5  1  0  0  0  0
  4 36  1  0  0  0  0
  5  6  2  0  0  0  0
  5 37  1  0  0  0  0
  6  7  1  0  0  0  0
  6 11  1  0  0  0  0
  7  8  2  0  0  0  0
  7 38  1  0  0  0  0
  8  9  1  0  0  0  0
  9 10  1  0  0  0  0
 10 39  1  0  0  0  0
 10 40  1  0  0  0  0
 10 41  1  0  0  0  0
 11 12  1  0  0  0  0
 11 23  1  0  0  0  0
 12 13  1  0  0  0  0
 12 42  1  0  0  0  0
 12 43  1  0  0  0  0
 13 14  2  0  0  0  0
 13 15  1  0  0  0  0
 15 16  1  0  0  0  0
 15 44  1  0  0  0  0
 16 17  1  0  0  0  0
 16 20  1  0  0  0  0
 16 45  1  0  0  0  0
 17 18  1  0  0  0  0
 17 19  1  0  0  0  0
 17 46  1  0  0  0  0
 18 47  1  0  0  0  0
 18 48  1  0  0  0  0
 18 49  1  0  0  0  0
 19 50  1  0  0  0  0
 19 51  1  0  0  0  0
 19 52  1  0  0  0  0
 20 21  1  0  0  0  0
 20 22  1  0  0  0  0
 20 53  1  0  0  0  0
 21 54  1  0  0  0  0
 21 55  1  0  0  0  0
 21 56  1  0  0  0  0
 22 57  1  0  0  0  0
 22 58  1  0  0  0  0
 22 59  1  0  0  0  0
 23 24  2  0  0  0  0
 23 25  2  0  0  0  0
 23 26  1  0  0  0  0
 26 32  1  0  0  0  0
 26 27  2  0  0  0  0
 27 28  1  0  0  0  0
 27 60  1  0  0  0  0
 28 29  2  0  0  0  0
 28 61  1  0  0  0  0
 29 30  1  0  0  0  0
 29 31  1  0  0  0  0
 30 62  1  0  0  0  0
 30 63  1  0  0  0  0
 30 64  1  0  0  0  0
 31 32  2  0  0  0  0
 31 65  1  0  0  0  0
 32 66  1  0  0  0  0
M  END
$$$$
