66

N   42.978001   11.828000    3.842000
C   42.081001   8.221000    5.868000
C   43.382999   8.746000    5.911000
C   43.654999   9.958000    5.259000
H   44.667999   10.354000    5.274000
C   42.655998   10.644000    4.574000
C   41.349998   10.167000    4.599000
H   40.546001   10.732000    4.135000
C   41.064999   8.971000    5.256000
H   40.028000   8.652000    5.288000
O   44.504002   8.222000    6.499000
C   45.209999   7.183000    5.842000
H   45.254002   7.353000    4.763000
H   46.203999   7.038000    6.279000
H   44.650002   6.255000    6.002000
O   41.819000   7.010000    6.451000
C   42.195000   5.867000    5.685000
H   41.977001   6.021000    4.623000
H   43.250999   5.610000    5.834000
H   41.594002   5.018000    6.025000
C   42.734001   13.155000    4.446000
H   43.668999   13.720000    4.522000
H   42.091000   13.753000    3.790000
C   42.062000   13.171000    5.818000
N   42.888000   13.073000    6.922000
H   43.869999   13.256000    6.762000
O   40.847000   13.344000    5.918000
C   42.418999   13.028000    8.327000
H   41.348000   13.274000    8.308000
C   43.139999   14.123000    9.194000
H   42.703999   15.101000    8.957000
C   42.973999   13.915000    10.700000
H   42.016998   13.428000    10.925000
H   43.764000   13.288000    11.123000
H   42.971001   14.873000    11.216000
C   44.632999   14.263000    8.870000
H   45.083000   13.279000    8.700000
H   44.775002   14.845000    7.951000
H   45.186001   14.765000    9.667000
C   42.575001   11.589000    8.947000
H   42.477001   11.662000    10.037000
C   41.506001   10.603000    8.447000
H   41.029999   10.963000    7.527000
H   41.942001   9.629000    8.204000
H   40.716999   10.458000    9.194000
C   43.942001   10.947000    8.676000
H   44.223000   10.262000    9.478000
H   43.924999   10.343000    7.761000
H   44.722000   11.706000    8.556000
S   44.103001   11.667000    2.576000
O   44.299999   10.264000    2.260000
O   45.242001   12.535000    2.825000
C   43.183998   12.391000    1.240000
C   42.270000   13.417000    1.500000
H   42.062000   13.737000    2.518000
C   41.664001   14.072000    0.430000
H   40.984001   14.897000    0.626000
C   41.957001   13.694000    -0.890000
C   42.807999   12.608000    -1.126000
H   43.022999   12.283000    -2.142000
C   43.422001   11.952000    -0.062000
H   44.104000   11.127000    -0.257000
C   41.375999   14.473000    -2.032000
H   42.137001   15.111000    -2.488000
H   40.980999   13.782000    -2.785000
H   40.544998   15.106000    -1.702000
