FXR_7
 OpenBabel06211700033D
Structure written by MMmdl.
 71 76  0  0  1  0  0  0  0  0999 V2000
    2.6708    0.3765   -3.2871 O   0  0  0  0  0  0  0  0  0  0  0  0
    2.9145   -0.6169   -2.6161 C   0  0  0  0  0  0  0  0  0  0  0  0
    2.9410   -1.9000   -3.1631 N   0  0  0  0  0  0  0  0  0  0  0  0
    2.6400   -2.2054   -4.5662 C   0  0  0  0  0  0  0  0  0  0  0  0
    3.8966   -2.2349   -5.4516 C   0  0  0  0  0  0  0  0  0  0  0  0
    4.7555   -3.4951   -5.2966 C   0  0  0  0  0  0  0  0  0  0  0  0
    3.9477   -4.7860   -5.3636 C   0  0  0  0  0  0  0  0  0  0  0  0
    2.7566   -4.7533   -4.4136 C   0  0  0  0  0  0  0  0  0  0  0  0
    1.8734   -3.5342   -4.6801 C   0  0  0  0  0  0  0  0  0  0  0  0
    3.2195   -0.5849   -1.1022 C   0  0  2  0  0  0  0  0  0  0  0  0
    2.3321    0.2284   -0.0967 C   0  0  0  0  0  0  0  0  0  0  0  0
    2.7253    1.6669    0.2524 C   0  0  0  0  0  0  0  0  0  0  0  0
    2.2589    2.6809   -0.7778 C   0  0  0  0  0  0  0  0  0  0  0  0
    0.7528    2.6139   -0.9880 C   0  0  0  0  0  0  0  0  0  0  0  0
    0.2863    1.2054   -1.3420 C   0  0  0  0  0  0  0  0  0  0  0  0
    0.8140    0.1480   -0.3730 C   0  0  0  0  0  0  0  0  0  0  0  0
    4.6700   -0.5515   -0.8513 N   0  0  0  0  0  0  0  0  0  0  0  0
    5.5571    0.4132   -1.3101 C   0  0  0  0  0  0  0  0  0  0  0  0
    5.4441    1.5339   -2.1472 C   0  0  0  0  0  0  0  0  0  0  0  0
    6.5878    2.3119   -2.3704 C   0  0  0  0  0  0  0  0  0  0  0  0
    7.8106    1.9771   -1.7958 C   0  0  0  0  0  0  0  0  0  0  0  0
    7.9179    0.8507   -0.9758 C   0  0  0  0  0  0  0  0  0  0  0  0
    6.7769    0.0688   -0.7353 C   0  0  0  0  0  0  0  0  0  0  0  0
    6.6640   -1.0687    0.0109 N   0  0  0  0  0  0  0  0  0  0  0  0
    5.4190   -1.4778   -0.1279 C   0  0  0  0  0  0  0  0  0  0  0  0
    4.9974   -2.7329    0.4407 C   0  0  0  0  0  0  0  0  0  0  0  0
    5.4901   -3.3308    1.5875 C   0  0  0  0  0  0  0  0  0  0  0  0
    4.7960   -4.5395    1.9189 C   0  0  0  0  0  0  0  0  0  0  0  0
    3.8045   -4.8322    1.0044 C   0  0  0  0  0  0  0  0  0  0  0  0
    3.9388   -3.8049   -0.3563 S   0  0  0  0  0  0  0  0  0  0  0  0
    2.7847   -5.8878    0.9721 C   0  0  0  0  0  0  0  0  0  0  0  0
    3.1029   -7.2014    1.3286 C   0  0  0  0  0  0  0  0  0  0  0  0
    2.1549   -8.2189    1.1881 C   0  0  0  0  0  0  0  0  0  0  0  0
    0.8800   -7.9330    0.6978 C   0  0  0  0  0  0  0  0  0  0  0  0
    0.5344   -6.6237    0.3807 C   0  0  0  0  0  0  0  0  0  0  0  0
    1.4777   -5.6064    0.5302 C   0  0  0  0  0  0  0  0  0  0  0  0
    3.2938   -2.6604   -2.5983 H   0  0  0  0  0  0  0  0  0  0  0  0
    1.9881   -1.4042   -4.9345 H   0  0  0  0  0  0  0  0  0  0  0  0
    4.5125   -1.3507   -5.2723 H   0  0  0  0  0  0  0  0  0  0  0  0
    3.5741   -2.1797   -6.5012 H   0  0  0  0  0  0  0  0  0  0  0  0
    5.2941   -3.4522   -4.3432 H   0  0  0  0  0  0  0  0  0  0  0  0
    5.5161   -3.5119   -6.0873 H   0  0  0  0  0  0  0  0  0  0  0  0
    4.5951   -5.6382   -5.1196 H   0  0  0  0  0  0  0  0  0  0  0  0
    3.5889   -4.9466   -6.3885 H   0  0  0  0  0  0  0  0  0  0  0  0
    3.1147   -4.7447   -3.3787 H   0  0  0  0  0  0  0  0  0  0  0  0
    2.1678   -5.6699   -4.5313 H   0  0  0  0  0  0  0  0  0  0  0  0
    1.4649   -3.6218   -5.6950 H   0  0  0  0  0  0  0  0  0  0  0  0
    1.0213   -3.5434   -3.9920 H   0  0  0  0  0  0  0  0  0  0  0  0
    2.9058   -1.5847   -0.8132 H   0  0  0  0  0  0  0  0  0  0  0  0
    2.4726   -0.3152    0.8544 H   0  0  0  0  0  0  0  0  0  0  0  0
    3.7974    1.7591    0.4422 H   0  0  0  0  0  0  0  0  0  0  0  0
    2.2449    1.9222    1.2097 H   0  0  0  0  0  0  0  0  0  0  0  0
    2.7574    2.5111   -1.7299 H   0  0  0  0  0  0  0  0  0  0  0  0
    2.5380    3.6887   -0.4478 H   0  0  0  0  0  0  0  0  0  0  0  0
    0.4668    3.3073   -1.7880 H   0  0  0  0  0  0  0  0  0  0  0  0
    0.2396    2.9509   -0.0789 H   0  0  0  0  0  0  0  0  0  0  0  0
    0.5887    0.9667   -2.3614 H   0  0  0  0  0  0  0  0  0  0  0  0
   -0.8113    1.1806   -1.3464 H   0  0  0  0  0  0  0  0  0  0  0  0
    0.2906    0.2966    0.5835 H   0  0  0  0  0  0  0  0  0  0  0  0
    0.5306   -0.8522   -0.7149 H   0  0  0  0  0  0  0  0  0  0  0  0
    4.5173    1.8072   -2.6344 H   0  0  0  0  0  0  0  0  0  0  0  0
    6.5171    3.1890   -3.0113 H   0  0  0  0  0  0  0  0  0  0  0  0
    8.6873    2.5894   -1.9893 H   0  0  0  0  0  0  0  0  0  0  0  0
    8.8693    0.5701   -0.5371 H   0  0  0  0  0  0  0  0  0  0  0  0
    6.2886   -2.8994    2.1814 H   0  0  0  0  0  0  0  0  0  0  0  0
    4.9984   -5.1315    2.8041 H   0  0  0  0  0  0  0  0  0  0  0  0
    4.0990   -7.4529    1.6842 H   0  0  0  0  0  0  0  0  0  0  0  0
    2.4187   -9.2414    1.4403 H   0  0  0  0  0  0  0  0  0  0  0  0
    0.1578   -8.7330    0.5594 H   0  0  0  0  0  0  0  0  0  0  0  0
   -0.4590   -6.3951    0.0021 H   0  0  0  0  0  0  0  0  0  0  0  0
    1.1823   -4.5906    0.2785 H   0  0  0  0  0  0  0  0  0  0  0  0
  1  2  2  0  0  0  0
  2  3  1  0  0  0  0
  3  4  1  0  0  0  0
  3 37  1  0  0  0  0
  4  9  1  0  0  0  0
  4  5  1  0  0  0  0
  4 38  1  0  0  0  0
  5  6  1  0  0  0  0
  5 39  1  0  0  0  0
  5 40  1  0  0  0  0
  6  7  1  0  0  0  0
  6 41  1  0  0  0  0
  6 42  1  0  0  0  0
  7  8  1  0  0  0  0
  7 43  1  0  0  0  0
  7 44  1  0  0  0  0
  8  9  1  0  0  0  0
  8 45  1  0  0  0  0
  8 46  1  0  0  0  0
  9 47  1  0  0  0  0
  9 48  1  0  0  0  0
 10 17  1  0  0  0  0
 10 11  1  0  0  0  0
 10  2  1  0  0  0  0
 10 49  1  1  0  0  0
 11 16  1  0  0  0  0
 11 12  1  0  0  0  0
 11 50  1  0  0  0  0
 12 13  1  0  0  0  0
 12 51  1  0  0  0  0
 12 52  1  0  0  0  0
 13 14  1  0  0  0  0
 13 53  1  0  0  0  0
 13 54  1  0  0  0  0
 14 15  1  0  0  0  0
 14 55  1  0  0  0  0
 14 56  1  0  0  0  0
 15 16  1  0  0  0  0
 15 57  1  0  0  0  0
 15 58  1  0  0  0  0
 16 59  1  0  0  0  0
 16 60  1  0  0  0  0
 17 25  1  0  0  0  0
 17 18  1  0  0  0  0
 18 23  2  0  0  0  0
 18 19  1  0  0  0  0
 19 20  2  0  0  0  0
 19 61  1  0  0  0  0
 20 21  1  0  0  0  0
 20 62  1  0  0  0  0
 21 22  2  0  0  0  0
 21 63  1  0  0  0  0
 22 23  1  0  0  0  0
 22 64  1  0  0  0  0
 23 24  1  0  0  0  0
 24 25  2  0  0  0  0
 25 26  1  0  0  0  0
 26 30  1  0  0  0  0
 26 27  2  0  0  0  0
 27 28  1  0  0  0  0
 27 65  1  0  0  0  0
 28 29  2  0  0  0  0
 28 66  1  0  0  0  0
 29 30  1  0  0  0  0
 29 31  1  0  0  0  0
 31 36  2  0  0  0  0
 31 32  1  0  0  0  0
 32 33  2  0  0  0  0
 32 67  1  0  0  0  0
 33 34  1  0  0  0  0
 33 68  1  0  0  0  0
 34 35  2  0  0  0  0
 34 69  1  0  0  0  0
 35 36  1  0  0  0  0
 35 70  1  0  0  0  0
 36 71  1  0  0  0  0
M  END
$$$$
