FXR_5
 OpenBabel06201723593D
Structure written by MMmdl.
 53 56  0  0  0  0  0  0  0  0999 V2000
    6.3347   -1.2300   -0.6662 C   0  0  0  0  0  0  0  0  0  0  0  0
    4.9130   -1.2811   -1.1975 C   0  0  0  0  0  0  0  0  0  0  0  0
    4.7623   -0.2261   -2.1643 O   0  0  0  0  0  0  0  0  0  0  0  0
    4.2294    0.9223   -1.6735 C   0  0  0  0  0  0  0  0  0  0  0  0
    3.6453    1.0151   -0.6006 O   0  0  0  0  0  0  0  0  0  0  0  0
    4.5605    2.1059   -2.5362 C   0  0  0  0  0  0  0  0  0  0  0  0
    4.5301    3.2780   -1.8331 C   0  0  0  0  0  0  0  0  0  0  0  0
    4.8091    4.5654   -2.3009 N   0  0  0  0  0  0  0  0  0  0  0  0
    4.6021    4.8183   -3.7222 C   0  0  0  0  0  0  0  0  0  0  0  0
    5.8095    4.4275   -4.6008 C   0  0  0  0  0  0  0  0  0  0  0  0
    5.3457    4.8209   -6.0421 C   0  0  0  0  0  0  0  0  0  0  0  0
    7.0939    5.1793   -4.2265 C   0  0  0  0  0  0  0  0  0  0  0  0
    6.0211    2.9400   -4.4873 C   0  0  0  0  0  0  0  0  0  0  0  0
    5.2275    2.0251   -3.8065 C   0  0  0  0  0  0  0  0  0  0  0  0
    5.1319    1.0147   -4.7817 N   0  0  0  0  0  0  0  0  0  0  0  0
    6.0231    1.3750   -5.8008 C   0  0  0  0  0  0  0  0  0  0  0  0
    6.0197    1.4597   -7.2150 C   0  0  0  0  0  0  0  0  0  0  0  0
    7.0105    2.3123   -7.7764 C   0  0  0  0  0  0  0  0  0  0  0  0
    8.0835    2.7735   -7.0167 C   0  0  0  0  0  0  0  0  0  0  0  0
    8.2174    2.2770   -5.7325 C   0  0  0  0  0  0  0  0  0  0  0  0
    6.9879    2.0827   -5.0746 C   0  0  0  0  0  0  0  0  0  0  0  0
    5.1173    5.7282   -1.5649 C   0  0  0  0  0  0  0  0  0  0  0  0
    5.1543    6.8382   -2.1115 O   0  0  0  0  0  0  0  0  0  0  0  0
    5.4850    5.7456   -0.1263 C   0  0  0  0  0  0  0  0  0  0  0  0
    5.2867    6.9663    0.5554 C   0  0  0  0  0  0  0  0  0  0  0  0
    5.6991    7.1436    1.8835 C   0  0  0  0  0  0  0  0  0  0  0  0
    6.3167    6.0813    2.5242 C   0  0  0  0  0  0  0  0  0  0  0  0
    6.7286    6.2392    3.7952 F   0  0  0  0  0  0  0  0  0  0  0  0
    6.5260    4.8929    1.8608 C   0  0  0  0  0  0  0  0  0  0  0  0
    7.1527    3.8887    2.4915 F   0  0  0  0  0  0  0  0  0  0  0  0
    6.1401    4.7121    0.5350 C   0  0  0  0  0  0  0  0  0  0  0  0
    6.5096   -2.0108    0.0786 H   0  0  0  0  0  0  0  0  0  0  0  0
    6.5460   -0.2556   -0.2120 H   0  0  0  0  0  0  0  0  0  0  0  0
    7.0488   -1.3564   -1.4867 H   0  0  0  0  0  0  0  0  0  0  0  0
    4.1915   -1.2113   -0.3747 H   0  0  0  0  0  0  0  0  0  0  0  0
    4.7306   -2.2333   -1.7047 H   0  0  0  0  0  0  0  0  0  0  0  0
    4.2556    3.2573   -0.7812 H   0  0  0  0  0  0  0  0  0  0  0  0
    4.3449    5.8695   -3.8964 H   0  0  0  0  0  0  0  0  0  0  0  0
    3.6933    4.2744   -4.0268 H   0  0  0  0  0  0  0  0  0  0  0  0
    6.0264    5.5302   -6.5210 H   0  0  0  0  0  0  0  0  0  0  0  0
    4.3544    5.2962   -6.0414 H   0  0  0  0  0  0  0  0  0  0  0  0
    5.2190    3.9691   -6.7093 H   0  0  0  0  0  0  0  0  0  0  0  0
    6.9977    6.2541   -4.4025 H   0  0  0  0  0  0  0  0  0  0  0  0
    7.9488    4.8319   -4.8164 H   0  0  0  0  0  0  0  0  0  0  0  0
    7.3637    5.0211   -3.1773 H   0  0  0  0  0  0  0  0  0  0  0  0
    4.4015    0.3182   -4.8445 H   0  0  0  0  0  0  0  0  0  0  0  0
    5.1590    1.1746   -7.8109 H   0  0  0  0  0  0  0  0  0  0  0  0
    6.9206    2.6777   -8.7963 H   0  0  0  0  0  0  0  0  0  0  0  0
    8.8466    3.4418   -7.4065 H   0  0  0  0  0  0  0  0  0  0  0  0
    8.8332    1.3571   -5.7292 H   0  0  0  0  0  0  0  0  0  0  0  0
    4.8445    7.8211    0.0245 H   0  0  0  0  0  0  0  0  0  0  0  0
    5.5746    8.1027    2.3698 H   0  0  0  0  0  0  0  0  0  0  0  0
    6.4022    3.7831    0.0446 H   0  0  0  0  0  0  0  0  0  0  0  0
  1  2  1  0  0  0  0
  1 32  1  0  0  0  0
  1 33  1  0  0  0  0
  1 34  1  0  0  0  0
  2  3  1  0  0  0  0
  2 35  1  0  0  0  0
  2 36  1  0  0  0  0
  3  4  1  0  0  0  0
  4  5  2  0  0  0  0
  4  6  1  0  0  0  0
  6 14  1  0  0  0  0
  6  7  2  0  0  0  0
  7  8  1  0  0  0  0
  7 37  1  0  0  0  0
  8  9  1  0  0  0  0
  8 22  1  0  0  0  0
  9 10  1  0  0  0  0
  9 38  1  0  0  0  0
  9 39  1  0  0  0  0
 10 11  1  0  0  0  0
 10 12  1  0  0  0  0
 10 13  1  0  0  0  0
 11 40  1  0  0  0  0
 11 41  1  0  0  0  0
 11 42  1  0  0  0  0
 12 43  1  0  0  0  0
 12 44  1  0  0  0  0
 12 45  1  0  0  0  0
 13 21  1  0  0  0  0
 13 14  2  0  0  0  0
 14 15  1  0  0  0  0
 15 16  1  0  0  0  0
 15 46  1  0  0  0  0
 16 21  2  0  0  0  0
 16 17  1  0  0  0  0
 17 18  2  0  0  0  0
 17 47  1  0  0  0  0
 18 19  1  0  0  0  0
 18 48  1  0  0  0  0
 19 20  2  0  0  0  0
 19 49  1  0  0  0  0
 20 21  1  0  0  0  0
 20 50  1  0  0  0  0
 22 23  2  0  0  0  0
 22 24  1  0  0  0  0
 24 31  2  0  0  0  0
 24 25  1  0  0  0  0
 25 26  2  0  0  0  0
 25 51  1  0  0  0  0
 26 27  1  0  0  0  0
 26 52  1  0  0  0  0
 27 28  1  0  0  0  0
 27 29  2  0  0  0  0
 29 30  1  0  0  0  0
 29 31  1  0  0  0  0
 31 53  1  0  0  0  0
M  END
$$$$
