FXR_2
 OpenBabel06201723553D
Structure written by MMmdl.
 46 49  0  0  0  0  0  0  0  0999 V2000
    2.0278    0.2279   -1.6728 C   0  0  0  0  0  0  0  0  0  0  0  0
    3.1216    0.1387   -0.6460 C   0  0  0  0  0  0  0  0  0  0  0  0
    3.9796    1.2370   -0.4378 C   0  0  0  0  0  0  0  0  0  0  0  0
    5.1873    1.0858    0.2333 C   0  0  0  0  0  0  0  0  0  0  0  0
    5.6315   -0.1977    0.5032 C   0  0  0  0  0  0  0  0  0  0  0  0
    4.7751   -1.2881    0.2957 C   0  0  0  0  0  0  0  0  0  0  0  0
    5.3939   -2.6685    0.1905 C   0  0  0  0  0  0  0  0  0  0  0  0
    3.4085   -1.0625   -0.0105 C   0  0  0  0  0  0  0  0  0  0  0  0
    2.4549   -2.0202    0.3869 N   0  0  0  0  0  0  0  0  0  0  0  0
    1.0944   -2.0925    0.5654 C   0  0  0  0  0  0  0  0  0  0  0  0
    0.3810   -3.3063    0.5953 C   0  0  0  0  0  0  0  0  0  0  0  0
   -0.9621   -3.1071    0.6372 N   0  0  0  0  0  0  0  0  0  0  0  0
   -1.1245   -1.8096    0.5971 C   0  0  0  0  0  0  0  0  0  0  0  0
   -2.3514   -1.1121    0.4406 C   0  0  0  0  0  0  0  0  0  0  0  0
   -2.3772    0.2224    0.5173 C   0  0  0  0  0  0  0  0  0  0  0  0
   -1.1790    0.9522    0.8440 C   0  0  0  0  0  0  0  0  0  0  0  0
    0.0160    0.3244    0.9745 C   0  0  0  0  0  0  0  0  0  0  0  0
    1.1559    1.1981    1.3907 C   0  0  0  0  0  0  0  0  0  0  0  0
    0.0851   -1.0927    0.7400 N   0  3  0  0  0  0  0  0  0  0  0  0
    0.8920   -4.6615    0.4315 C   0  0  0  0  0  0  0  0  0  0  0  0
    0.1887   -5.5751   -0.3544 C   0  0  0  0  0  0  0  0  0  0  0  0
   -0.9507   -5.2354   -0.9797 F   0  0  0  0  0  0  0  0  0  0  0  0
    0.6439   -6.8880   -0.5608 C   0  0  0  0  0  0  0  0  0  0  0  0
    1.8312   -7.3119    0.0385 C   0  0  0  0  0  0  0  0  0  0  0  0
    2.5499   -6.4240    0.8354 C   0  0  0  0  0  0  0  0  0  0  0  0
    2.0738   -5.1221    1.0322 C   0  0  0  0  0  0  0  0  0  0  0  0
    2.7966   -4.3145    1.8230 F   0  0  0  0  0  0  0  0  0  0  0  0
    2.1843   -0.5495   -2.4277 H   0  0  0  0  0  0  0  0  0  0  0  0
    2.0469    1.1949   -2.1828 H   0  0  0  0  0  0  0  0  0  0  0  0
    1.0298    0.0977   -1.2732 H   0  0  0  0  0  0  0  0  0  0  0  0
    3.7017    2.2211   -0.8032 H   0  0  0  0  0  0  0  0  0  0  0  0
    5.8269    1.9397    0.4312 H   0  0  0  0  0  0  0  0  0  0  0  0
    6.6540   -0.3518    0.8395 H   0  0  0  0  0  0  0  0  0  0  0  0
    6.4904   -2.6072    0.2093 H   0  0  0  0  0  0  0  0  0  0  0  0
    5.1340   -3.0853   -0.7940 H   0  0  0  0  0  0  0  0  0  0  0  0
    5.0641   -3.3352    0.9805 H   0  0  0  0  0  0  0  0  0  0  0  0
    2.9531   -2.8606    0.6798 H   0  0  0  0  0  0  0  0  0  0  0  0
   -3.2462   -1.6874    0.2328 H   0  0  0  0  0  0  0  0  0  0  0  0
   -3.3004    0.7733    0.3650 H   0  0  0  0  0  0  0  0  0  0  0  0
   -1.2825    2.0267    0.9726 H   0  0  0  0  0  0  0  0  0  0  0  0
    0.8181    1.9575    2.1097 H   0  0  0  0  0  0  0  0  0  0  0  0
    1.5149    1.7773    0.5355 H   0  0  0  0  0  0  0  0  0  0  0  0
    1.9646    0.6527    1.8742 H   0  0  0  0  0  0  0  0  0  0  0  0
    0.0653   -7.5633   -1.1804 H   0  0  0  0  0  0  0  0  0  0  0  0
    2.1915   -8.3232   -0.1194 H   0  0  0  0  0  0  0  0  0  0  0  0
    3.4694   -6.7351    1.3226 H   0  0  0  0  0  0  0  0  0  0  0  0
  1  2  1  0  0  0  0
  1 28  1  0  0  0  0
  1 29  1  0  0  0  0
  1 30  1  0  0  0  0
  2  8  2  0  0  0  0
  2  3  1  0  0  0  0
  3  4  2  0  0  0  0
  3 31  1  0  0  0  0
  4  5  1  0  0  0  0
  4 32  1  0  0  0  0
  5  6  2  0  0  0  0
  5 33  1  0  0  0  0
  6  7  1  0  0  0  0
  6  8  1  0  0  0  0
  7 34  1  0  0  0  0
  7 35  1  0  0  0  0
  7 36  1  0  0  0  0
  8  9  1  0  0  0  0
  9 10  1  0  0  0  0
  9 37  1  0  0  0  0
 10 19  1  0  0  0  0
 10 11  2  0  0  0  0
 11 12  1  0  0  0  0
 11 20  1  0  0  0  0
 12 13  1  0  0  0  0
 13 19  2  0  0  0  0
 13 14  1  0  0  0  0
 14 15  2  0  0  0  0
 14 38  1  0  0  0  0
 15 16  1  0  0  0  0
 15 39  1  0  0  0  0
 16 17  2  0  0  0  0
 16 40  1  0  0  0  0
 17 18  1  0  0  0  0
 17 19  1  0  0  0  0
 18 41  1  0  0  0  0
 18 42  1  0  0  0  0
 18 43  1  0  0  0  0
 20 26  2  0  0  0  0
 20 21  1  0  0  0  0
 21 22  1  0  0  0  0
 21 23  2  0  0  0  0
 23 24  1  0  0  0  0
 23 44  1  0  0  0  0
 24 25  2  0  0  0  0
 24 45  1  0  0  0  0
 25 26  1  0  0  0  0
 25 46  1  0  0  0  0
 26 27  1  0  0  0  0
M  CHG  1  19   1
M  END
$$$$
