FXR_3
 OpenBabel06201723563D
Structure written by MMmdl.
 56 58  0  0  0  0  0  0  0  0999 V2000
   12.4191    5.9452    2.6476 F   0  0  0  0  0  0  0  0  0  0  0  0
   11.7818    4.9422    2.0317 C   0  0  0  0  0  0  0  0  0  0  0  0
   12.5081    3.8224    1.6204 C   0  0  0  0  0  0  0  0  0  0  0  0
   11.8452    2.7597    0.9986 C   0  0  0  0  0  0  0  0  0  0  0  0
   10.4567    2.7873    0.7984 C   0  0  0  0  0  0  0  0  0  0  0  0
    9.7126    1.6411    0.2167 C   0  0  0  0  0  0  0  0  0  0  0  0
   10.1620    0.3722    0.1539 C   0  0  0  0  0  0  0  0  0  0  0  0
    9.2655   -0.7579   -0.2812 C   0  0  0  0  0  0  0  0  0  0  0  0
    8.0701   -0.6030   -0.0171 O   0  0  0  0  0  0  0  0  0  0  0  0
    9.7972   -1.9358   -0.8893 N   0  0  0  0  0  0  0  0  0  0  0  0
    8.8141   -3.1066   -1.0488 C   0  0  0  0  0  0  0  0  0  0  0  0
    7.4365   -2.6857   -1.6305 C   0  0  0  0  0  0  0  0  0  0  0  0
    7.6532   -2.0809   -3.0129 C   0  0  0  0  0  0  0  0  0  0  0  0
    8.1160   -3.1632   -3.9813 C   0  0  0  0  0  0  0  0  0  0  0  0
    9.2779   -3.9993   -3.4427 C   0  0  0  0  0  0  0  0  0  0  0  0
    9.1615   -4.3356   -1.9505 C   0  0  0  0  0  0  0  0  0  0  0  0
   11.1488   -1.9741   -1.2363 C   0  0  0  0  0  0  0  0  0  0  0  0
   11.8389   -0.9701   -1.4102 O   0  0  0  0  0  0  0  0  0  0  0  0
   11.7108   -3.2075   -1.4483 N   0  0  0  0  0  0  0  0  0  0  0  0
   13.1126   -3.3664   -1.8599 C   0  0  0  0  0  0  0  0  0  0  0  0
   13.9796   -3.7141   -0.6442 C   0  0  0  0  0  0  0  0  0  0  0  0
   13.7129   -5.1314   -0.1298 C   0  0  0  0  0  0  0  0  0  0  0  0
   13.8479   -6.1811   -1.2303 C   0  0  0  0  0  0  0  0  0  0  0  0
   13.0098   -5.8470   -2.4603 C   0  0  0  0  0  0  0  0  0  0  0  0
   13.2779   -4.4290   -2.9568 C   0  0  0  0  0  0  0  0  0  0  0  0
    9.7602    3.9490    1.1869 C   0  0  0  0  0  0  0  0  0  0  0  0
   10.4160    5.0189    1.8091 C   0  0  0  0  0  0  0  0  0  0  0  0
   13.5753    3.7847    1.7977 H   0  0  0  0  0  0  0  0  0  0  0  0
   12.4389    1.9097    0.6769 H   0  0  0  0  0  0  0  0  0  0  0  0
    8.7025    1.8732   -0.1293 H   0  0  0  0  0  0  0  0  0  0  0  0
   11.1365    0.0939    0.5244 H   0  0  0  0  0  0  0  0  0  0  0  0
    8.6592   -3.4821   -0.0280 H   0  0  0  0  0  0  0  0  0  0  0  0
    6.8628   -2.0238   -0.9853 H   0  0  0  0  0  0  0  0  0  0  0  0
    6.7810   -3.5656   -1.7172 H   0  0  0  0  0  0  0  0  0  0  0  0
    8.4027   -1.2816   -2.9732 H   0  0  0  0  0  0  0  0  0  0  0  0
    6.7272   -1.6229   -3.3710 H   0  0  0  0  0  0  0  0  0  0  0  0
    8.4033   -2.7076   -4.9353 H   0  0  0  0  0  0  0  0  0  0  0  0
    7.2682   -3.8262   -4.1913 H   0  0  0  0  0  0  0  0  0  0  0  0
   10.2158   -3.4703   -3.6318 H   0  0  0  0  0  0  0  0  0  0  0  0
    9.3355   -4.9343   -4.0167 H   0  0  0  0  0  0  0  0  0  0  0  0
    8.3420   -5.0663   -1.8514 H   0  0  0  0  0  0  0  0  0  0  0  0
   10.0165   -4.9171   -1.6078 H   0  0  0  0  0  0  0  0  0  0  0  0
   11.3642   -3.9347   -0.8467 H   0  0  0  0  0  0  0  0  0  0  0  0
   13.4618   -2.4138   -2.2755 H   0  0  0  0  0  0  0  0  0  0  0  0
   13.8061   -2.9933    0.1634 H   0  0  0  0  0  0  0  0  0  0  0  0
   15.0372   -3.6325   -0.9247 H   0  0  0  0  0  0  0  0  0  0  0  0
   12.7068   -5.1874    0.3028 H   0  0  0  0  0  0  0  0  0  0  0  0
   14.4124   -5.3609    0.6817 H   0  0  0  0  0  0  0  0  0  0  0  0
   13.5497   -7.1614   -0.8418 H   0  0  0  0  0  0  0  0  0  0  0  0
   14.9016   -6.2619   -1.5231 H   0  0  0  0  0  0  0  0  0  0  0  0
   11.9464   -5.9645   -2.2266 H   0  0  0  0  0  0  0  0  0  0  0  0
   13.2331   -6.5633   -3.2598 H   0  0  0  0  0  0  0  0  0  0  0  0
   14.3106   -4.3851   -3.3311 H   0  0  0  0  0  0  0  0  0  0  0  0
   12.6293   -4.2065   -3.8120 H   0  0  0  0  0  0  0  0  0  0  0  0
    8.6859    4.0294    1.0321 H   0  0  0  0  0  0  0  0  0  0  0  0
    9.8640    5.9007    2.1209 H   0  0  0  0  0  0  0  0  0  0  0  0
  1  2  1  0  0  0  0
  2 27  2  0  0  0  0
  2  3  1  0  0  0  0
  3  4  2  0  0  0  0
  3 28  1  0  0  0  0
  4  5  1  0  0  0  0
  4 29  1  0  0  0  0
  5  6  1  0  0  0  0
  5 26  2  0  0  0  0
  6  7  2  0  0  0  0
  6 30  1  0  0  0  0
  7  8  1  0  0  0  0
  7 31  1  0  0  0  0
  8  9  2  0  0  0  0
  8 10  1  0  0  0  0
 10 11  1  0  0  0  0
 10 17  1  0  0  0  0
 11 16  1  0  0  0  0
 11 12  1  0  0  0  0
 11 32  1  0  0  0  0
 12 13  1  0  0  0  0
 12 33  1  0  0  0  0
 12 34  1  0  0  0  0
 13 14  1  0  0  0  0
 13 35  1  0  0  0  0
 13 36  1  0  0  0  0
 14 15  1  0  0  0  0
 14 37  1  0  0  0  0
 14 38  1  0  0  0  0
 15 16  1  0  0  0  0
 15 39  1  0  0  0  0
 15 40  1  0  0  0  0
 16 41  1  0  0  0  0
 16 42  1  0  0  0  0
 17 18  2  0  0  0  0
 17 19  1  0  0  0  0
 19 20  1  0  0  0  0
 19 43  1  0  0  0  0
 20 25  1  0  0  0  0
 20 21  1  0  0  0  0
 20 44  1  0  0  0  0
 21 22  1  0  0  0  0
 21 45  1  0  0  0  0
 21 46  1  0  0  0  0
 22 23  1  0  0  0  0
 22 47  1  0  0  0  0
 22 48  1  0  0  0  0
 23 24  1  0  0  0  0
 23 49  1  0  0  0  0
 23 50  1  0  0  0  0
 24 25  1  0  0  0  0
 24 51  1  0  0  0  0
 24 52  1  0  0  0  0
 25 53  1  0  0  0  0
 25 54  1  0  0  0  0
 26 27  1  0  0  0  0
 26 55  1  0  0  0  0
 27 56  1  0  0  0  0
M  END
$$$$
