FXR_9
 OpenBabel06211700073D
Structure written by MMmdl.
 69 74  0  0  1  0  0  0  0  0999 V2000
    3.0313    0.5180   -1.2118 O   0  0  0  0  0  0  0  0  0  0  0  0
    2.4627    0.0852   -0.2154 C   0  0  0  0  0  0  0  0  0  0  0  0
    1.1817    0.5029    0.1058 N   0  0  0  0  0  0  0  0  0  0  0  0
    0.3934    1.3165   -0.8189 C   0  0  0  0  0  0  0  0  0  0  0  0
   -0.4737    0.4307   -1.7230 C   0  0  0  0  0  0  0  0  0  0  0  0
   -1.6384   -0.2120   -0.9701 C   0  0  0  0  0  0  0  0  0  0  0  0
   -2.4809    0.8296   -0.2392 C   0  0  0  0  0  0  0  0  0  0  0  0
   -1.6344    1.7066    0.6768 C   0  0  0  0  0  0  0  0  0  0  0  0
   -0.4585    2.3408   -0.0642 C   0  0  0  0  0  0  0  0  0  0  0  0
    3.1083   -0.8894    0.7944 C   0  0  1  0  0  0  0  0  0  0  0  0
    2.2599   -2.1608    1.2335 C   0  0  0  0  0  0  0  0  0  0  0  0
    1.3481   -2.8934    0.2181 C   0  0  0  0  0  0  0  0  0  0  0  0
    1.9140   -4.1453   -0.4531 C   0  0  0  0  0  0  0  0  0  0  0  0
    2.6586   -5.0653    0.4982 C   0  0  0  0  0  0  0  0  0  0  0  0
    3.6646   -4.2957    1.3440 C   0  0  0  0  0  0  0  0  0  0  0  0
    2.9829   -3.1821    2.1281 C   0  0  0  0  0  0  0  0  0  0  0  0
    4.5861   -0.9492    0.7222 N   0  0  0  0  0  0  0  0  0  0  0  0
    5.3699   -0.4978    1.7969 C   0  0  0  0  0  0  0  0  0  0  0  0
    5.0756   -0.1057    3.1163 C   0  0  0  0  0  0  0  0  0  0  0  0
    6.1198    0.4044    3.8978 C   0  0  0  0  0  0  0  0  0  0  0  0
    7.4136    0.5075    3.3940 C   0  0  0  0  0  0  0  0  0  0  0  0
    7.7004    0.0804    2.0944 C   0  0  0  0  0  0  0  0  0  0  0  0
    6.6608   -0.4257    1.2979 C   0  0  0  0  0  0  0  0  0  0  0  0
    6.7050   -0.8806    0.0203 N   0  0  0  0  0  0  0  0  0  0  0  0
    5.4647   -1.1790   -0.3485 C   0  0  0  0  0  0  0  0  0  0  0  0
    5.2132   -1.6844   -1.7203 C   0  0  0  0  0  0  0  0  0  0  0  0
    6.2891   -1.8657   -2.6132 C   0  0  0  0  0  0  0  0  0  0  0  0
    6.1109   -2.4280   -3.8959 C   0  0  0  0  0  0  0  0  0  0  0  0
    4.8391   -2.8269   -4.3117 C   0  0  0  0  0  0  0  0  0  0  0  0
    3.7667   -2.5782   -3.4603 C   0  0  0  0  0  0  0  0  0  0  0  0
    3.9623   -2.0206   -2.1985 C   0  0  0  0  0  0  0  0  0  0  0  0
    4.5535   -3.5443   -5.5466 C   0  0  0  0  0  0  0  0  0  0  0  0
    5.3012   -3.5522   -6.6889 N   0  0  0  0  0  0  0  0  0  0  0  0
    4.7221   -4.3214   -7.6227 N   0  0  0  0  0  0  0  0  0  0  0  0
    3.6108   -4.7756   -7.0602 N   0  0  0  0  0  0  0  0  0  0  0  0
    3.4907   -4.2967   -5.7804 N   0  0  0  0  0  0  0  0  0  0  0  0
    0.7352    0.1671    0.9486 H   0  0  0  0  0  0  0  0  0  0  0  0
    1.0909    1.8694   -1.4591 H   0  0  0  0  0  0  0  0  0  0  0  0
    0.1343   -0.3532   -2.1930 H   0  0  0  0  0  0  0  0  0  0  0  0
   -0.8794    1.0441   -2.5375 H   0  0  0  0  0  0  0  0  0  0  0  0
   -1.2575   -0.9451   -0.2509 H   0  0  0  0  0  0  0  0  0  0  0  0
   -2.2690   -0.7621   -1.6750 H   0  0  0  0  0  0  0  0  0  0  0  0
   -3.2577    0.3265    0.3470 H   0  0  0  0  0  0  0  0  0  0  0  0
   -2.9946    1.4603   -0.9752 H   0  0  0  0  0  0  0  0  0  0  0  0
   -1.2640    1.1076    1.5172 H   0  0  0  0  0  0  0  0  0  0  0  0
   -2.2611    2.4966    1.1063 H   0  0  0  0  0  0  0  0  0  0  0  0
   -0.8527    3.0685   -0.7861 H   0  0  0  0  0  0  0  0  0  0  0  0
    0.1618    2.9011    0.6446 H   0  0  0  0  0  0  0  0  0  0  0  0
    2.9829   -0.2614    1.6906 H   0  0  0  0  0  0  0  0  0  0  0  0
    1.5188   -1.7034    1.9121 H   0  0  0  0  0  0  0  0  0  0  0  0
    0.9424   -2.2120   -0.5340 H   0  0  0  0  0  0  0  0  0  0  0  0
    0.4706   -3.2415    0.7865 H   0  0  0  0  0  0  0  0  0  0  0  0
    2.5916   -3.8810   -1.2583 H   0  0  0  0  0  0  0  0  0  0  0  0
    1.0987   -4.6984   -0.9363 H   0  0  0  0  0  0  0  0  0  0  0  0
    3.1772   -5.8411   -0.0780 H   0  0  0  0  0  0  0  0  0  0  0  0
    1.9391   -5.5804    1.1456 H   0  0  0  0  0  0  0  0  0  0  0  0
    4.4510   -3.8824    0.7050 H   0  0  0  0  0  0  0  0  0  0  0  0
    4.1477   -4.9890    2.0415 H   0  0  0  0  0  0  0  0  0  0  0  0
    2.2317   -3.6488    2.7831 H   0  0  0  0  0  0  0  0  0  0  0  0
    3.6919   -2.6943    2.8011 H   0  0  0  0  0  0  0  0  0  0  0  0
    4.0776   -0.1734    3.5342 H   0  0  0  0  0  0  0  0  0  0  0  0
    5.9140    0.7358    4.9137 H   0  0  0  0  0  0  0  0  0  0  0  0
    8.2064    0.9231    4.0111 H   0  0  0  0  0  0  0  0  0  0  0  0
    8.7048    0.1538    1.6912 H   0  0  0  0  0  0  0  0  0  0  0  0
    7.2974   -1.5861   -2.3039 H   0  0  0  0  0  0  0  0  0  0  0  0
    6.9891   -2.5741   -4.5192 H   0  0  0  0  0  0  0  0  0  0  0  0
    2.7498   -2.8467   -3.7584 H   0  0  0  0  0  0  0  0  0  0  0  0
    3.0757   -1.8745   -1.6085 H   0  0  0  0  0  0  0  0  0  0  0  0
    6.1622   -3.0666   -6.9046 H   0  0  0  0  0  0  0  0  0  0  0  0
  1  2  2  0  0  0  0
  2  3  1  0  0  0  0
  2 10  1  0  0  0  0
  3  4  1  0  0  0  0
  3 37  1  0  0  0  0
  4  9  1  0  0  0  0
  4  5  1  0  0  0  0
  4 38  1  0  0  0  0
  5  6  1  0  0  0  0
  5 39  1  0  0  0  0
  5 40  1  0  0  0  0
  6  7  1  0  0  0  0
  6 41  1  0  0  0  0
  6 42  1  0  0  0  0
  7  8  1  0  0  0  0
  7 43  1  0  0  0  0
  7 44  1  0  0  0  0
  8  9  1  0  0  0  0
  8 45  1  0  0  0  0
  8 46  1  0  0  0  0
  9 47  1  0  0  0  0
  9 48  1  0  0  0  0
 10 11  1  0  0  0  0
 10 17  1  0  0  0  0
 10 49  1  1  0  0  0
 11 16  1  0  0  0  0
 11 12  1  0  0  0  0
 11 50  1  0  0  0  0
 12 13  1  0  0  0  0
 12 51  1  0  0  0  0
 12 52  1  0  0  0  0
 13 14  1  0  0  0  0
 13 53  1  0  0  0  0
 13 54  1  0  0  0  0
 14 15  1  0  0  0  0
 14 55  1  0  0  0  0
 14 56  1  0  0  0  0
 15 16  1  0  0  0  0
 15 57  1  0  0  0  0
 15 58  1  0  0  0  0
 16 59  1  0  0  0  0
 16 60  1  0  0  0  0
 17 25  1  0  0  0  0
 17 18  1  0  0  0  0
 18 23  2  0  0  0  0
 18 19  1  0  0  0  0
 19 20  2  0  0  0  0
 19 61  1  0  0  0  0
 20 21  1  0  0  0  0
 20 62  1  0  0  0  0
 21 22  2  0  0  0  0
 21 63  1  0  0  0  0
 22 23  1  0  0  0  0
 22 64  1  0  0  0  0
 23 24  1  0  0  0  0
 24 25  2  0  0  0  0
 25 26  1  0  0  0  0
 26 31  2  0  0  0  0
 26 27  1  0  0  0  0
 27 28  2  0  0  0  0
 27 65  1  0  0  0  0
 28 29  1  0  0  0  0
 28 66  1  0  0  0  0
 29 30  2  0  0  0  0
 29 32  1  0  0  0  0
 30 31  1  0  0  0  0
 30 67  1  0  0  0  0
 31 68  1  0  0  0  0
 32 36  2  0  0  0  0
 32 33  1  0  0  0  0
 33 34  1  0  0  0  0
 33 69  1  0  0  0  0
 34 35  2  0  0  0  0
 35 36  1  0  0  0  0
M  END
$$$$
