66

C   26.396000   -2.148000    12.656000
C   26.101000   -1.068000    11.795000
C   26.909000   0.066000    11.792000
C   28.004999   0.153000    12.648000
C   28.343000   -0.921000    13.478000
C   27.533001   -2.077000    13.498000
C   31.315001   0.343000    11.994000
C   31.225000   -1.041000    11.800000
C   32.236000   -1.861000    12.308000
C   33.339001   -1.305000    12.969000
C   33.426998   0.083000    13.129000
C   32.424999   0.916000    12.631000
C   24.452000   -3.275000    11.884000
O   25.605000   -3.311000    12.726000
O   27.806000   -3.191000    14.315000
C   28.882999   -2.988000    15.232000
N   28.819000   1.348000    12.605000
C   29.191999   1.914000    13.940000
C   28.683001   3.322000    14.124000
O   27.701000   3.769000    13.549000
N   29.457001   4.025000    15.019000
C   29.339001   5.457000    15.201000
C   29.666000   5.854000    16.643999
C   28.570999   5.369000    17.568001
C   30.983000   5.305000    17.158001
C   30.202999   6.231000    14.196000
C   31.430000   5.471000    13.709000
C   29.384001   6.596000    12.976000
S   30.021999   1.417000    11.347000
O   29.525000   0.797000    10.133000
O   30.580000   2.754000    11.319000
C   34.379002   -2.188000    13.574000
H   24.750000   -3.225000    10.832000
H   23.812000   -2.427000    12.146000
H   23.885000   -4.196000    12.039000
H   25.257999   -1.054000    11.115000
H   26.670000   0.892000    11.133000
H   29.235001   -0.822000    14.084000
H   28.962999   -3.872000    15.871000
H   28.688999   -2.118000    15.866000
H   29.825001   -2.867000    14.688000
H   30.280001   1.892000    14.065000
H   28.775999   1.315000    14.754000
H   30.278999   3.571000    15.403000
H   28.295000   5.731000    15.020000
H   29.698000   6.946000    16.705000
H   28.499001   4.278000    17.554001
H   27.607000   5.784000    17.266001
H   28.773001   5.683000    18.594999
H   31.823999   5.690000    16.579000
H   31.002001   4.213000    17.117001
H   31.131001   5.601000    18.198999
H   30.521999   7.166000    14.662000
H   31.145000   4.591000    13.127000
H   32.060001   5.146000    14.539000
H   32.030998   6.107000    13.056000
H   28.472000   7.124000    13.265000
H   29.100000   5.702000    12.416000
H   29.961000   7.243000    12.310000
H   30.375999   -1.484000    11.290000
H   32.160999   -2.938000    12.194000
H   34.118000   -2.418000    14.610000
H   35.355000   -1.692000    13.552000
H   34.464001   -3.120000    13.009000
H   34.275002   0.515000    13.649000
H   32.508999   1.990000    12.763000
